Version 4
SHEET 1 996 680
WIRE 528 192 464 192
FLAG -128 -80 0
FLAG -128 -160 clk_20Meg
FLAG 528 288 clk_20Meg
FLAG -320 -80 0
FLAG -320 -160 vcc
FLAG 528 256 vcc
FLAG 528 160 vcc
FLAG 528 384 0
FLAG 528 416 0
FLAG 528 448 0
FLAG 528 480 0
FLAG 528 224 vcc
FLAG 752 448 q2
FLAG 352 192 q2
FLAG 352 192 q2
SYMBOL voltage -128 -176 R0
SYMATTR InstName V1
SYMATTR Value PULSE(0 3.3 0 1n 1n 24n 50n)
SYMBOL 74HCT/74hct161 640 80 R0
SYMATTR InstName U1
SYMBOL voltage -320 -176 R0
SYMATTR InstName V2
SYMATTR Value 3.3
SYMBOL 74HCT/74hct04 400 128 R0
SYMATTR InstName U2
TEXT 488 -272 Left 2 !.tran 10u
TEXT 688 -272 Left 2 !.inc 74hct.lib
